Hello git 123 Branch
 123
It's new line.
New line. 1213413
