Hello git
It's new line.
New line. 1213413
